12
Frame 1
C -0.2170 0.1644 0.0000
C 0.9911 -0.5331 0.0000
C 0.9911 -1.9281 0.0000
C -0.2170 -2.6256 0.0000
C -1.4251 -1.9281 0.0000
C -1.4251 -0.5331 0.0000
H -0.2170 1.2641 0.0000
H 1.9435 0.0168 0.0000
H 1.9435 -2.4780 0.0000
H -0.2170 -3.7253 0.0000
H -2.3775 -2.4780 0.0000
H -2.3775 0.0168 0.0000
